.model 1N4150 D(Is=10E-15 Rs=1.0 CJO=1.3p Tt=12n Bv=70 Ibv=0.1p)
*          85-??-??   Original library