*1N4934 MCE
*400V 1A Si Rectifier pkg:DIODE0.4 1,2
.MODEL 1N4934 D(IS=2.54E-10 RS=6.874E-6 N=1.498 TT=1.086E-8 CJO=3.135E-11 
+ VJ=0.5581 M=0.4379 BV=100 IBV=0.0001 )

