*1N5401 MCE
*100V 3A Si Rectifier pkg:DO-201 1,2
.MODEL 1N5401 D(IS=2.68E-12 RS=0.00731 N=1.17 TT=1.44E-5 CJO=1.24E-10 
+ VJ=0.6 M=0.333 BV=133.2 IBV=1E-5 )

