*1N5408 MCE 8/5/97
*Ref: International Rectifier Digest '94
*1000V 3000mA 3us Si Diode pkg:DIODE0.4 1,2
.MODEL 1N5408 D (IS=4.26N RS=14M N=1.7 BV=1E+03 IBV=165U
+ CJO=125P VJ=0.75 M=0.333 TT=4.32U)


