*2N3906
*Si 310mW  40V 200mA 250MHz pkg:TO-92B 1,2,3
.MODEL 2N3906 PNP(IS=4E-14 BF=400 VAF=50 IKF=0.02 ISE=7E-15 NE=1.16 
+ BR=7.5 RC=2.4 CJE=6.3E-12 VJE=0.75 TF=5E-10 CJC=5.8E-12 VJC=0.75 TR=2.3E-8 
+ VJS=0.75 XTB=1.5 KF=6E-16 )


