*****************************************************************
.MODEL BAS116 D(
+       AF= 1.00E+00    BV= 7.50E+01   CJO= 1.83E-12    EG= 1.11E+00
+       FC= 5.00E-01   IBV= 1.00E-04    IS= 1.48E-13    KF= 0.00E+00
+        M= 2.62E-01     N= 1.33E+00    RS= 8.48E-01    TT= 8.66E-09
+       VJ= 3.44E-01   XTI= 3.00E+00) 