*****************************************************************
.MODEL BAS21 D(
+       AF= 1.00E+00    BV= 2.50E+02   CJO= 6.64E-13    EG= 1.11E+00
+       FC= 5.00E-01   IBV= 1.00E-04    IS= 6.42E-09    KF= 0.00E+00
+        M= 1.00E-01     N= 1.98E+00    RS= 9.12E-01    TT= 7.21E-08
+       VJ= 2.00E+00   XTI= 3.00E+00)