*Default semiconductor capacitor
.MODEL CAP C()