*Default Diode
*Diode Pinout: A,K
.MODEL DIODE D()