*Typ INFRARED GaAs LED: Vf=1.2V Vr=5V If=40mA trr=3uS
*LED Pinout: 1=A, 2=K
.MODEL LED0 D (IS=93.5P RS=84M N=2.63 BV=5 IBV=10U
+ CJO=2.97P VJ=.75 M=.333 TT=4.32U)