*Default N-Ch J-FET pkg:TO-92B 3,1,2
*NJFET Pinout: 1=D, 2=G, 3=S
.MODEL NJFET NJF()