*Default N-Channel MOSFET
*Pinout: D,G,S
.MODEL NMOS NMOS()