*Default NPN BJT
*NPN Trans Pinout: C,B,E
.MODEL NPN NPN()