*Default P-Channel MOSFET
*Pinout: D,G,S
.MODEL PMOS PMOS()