*Default PNP BJT
*PNP Trans Pinout: C,B,E
.MODEL PNP PNP()