*Default semiconductor resistor
.MODEL RES R()
