*Default Schottky Diode
*Schottky Diode Pinout: A,K
.MODEL SKYDIODE D(EG=0.69 XTI=2)